#======================================================================

# CRYSTAL DATA

#----------------------------------------------------------------------

data_VESTA_phase_1


_chemical_name_common                  '8030'
_cell_length_a                         25.00000
_cell_length_b                         25.00000
_cell_length_c                         30.00000
_cell_angle_alpha                      90
_cell_angle_beta                       90
_cell_angle_gamma                      90
_space_group_name_H-M_alt              'P 1'
_space_group_IT_number                 1

loop_
_space_group_symop_operation_xyz
   'x, y, z'

loop_
   _atom_site_label
   _atom_site_occupancy
   _atom_site_fract_x
   _atom_site_fract_y
   _atom_site_fract_z
   _atom_site_adp_type
   _atom_site_B_iso_or_equiv
   _atom_site_type_symbol
   S1         1.0     0.064651      0.046617      0.000000     Biso  1.000000 S
   C1         1.0     0.149087      0.109113      0.000000     Biso  1.000000 C
   C2         1.0     0.105431      0.143425      0.000000     Biso  1.000000 C
   C3         1.0     0.133339      0.055801      0.000000     Biso  1.000000 C
   C4         1.0     0.057348      0.115529      0.000000     Biso  1.000000 C
   H1         1.0     0.188023      0.121549      0.000000     Biso  1.000000 H
   H2         1.0     0.108311      0.184197      0.000000     Biso  1.000000 H
   H3         1.0     0.159815      0.024718      0.000000     Biso  1.000000 H
   H4         1.0     0.020891      0.133909      0.000000     Biso  1.000000 H
   S1         1.0     0.064651      0.046617      REPL     Biso  1.000000 S
   C1         1.0     0.149087      0.109113      REPL     Biso  1.000000 C
   C2         1.0     0.105431      0.143425      REPL     Biso  1.000000 C
   C3         1.0     0.133339      0.055801      REPL     Biso  1.000000 C
   C4         1.0     0.057348      0.115529      REPL     Biso  1.000000 C
   H1         1.0     0.188023      0.121549      REPL     Biso  1.000000 H
   H2         1.0     0.108311      0.184197      REPL     Biso  1.000000 H
   H3         1.0     0.159815      0.024718      REPL     Biso  1.000000 H
   H4         1.0     0.020891      0.133909      REPL     Biso  1.000000 H
